# WEL package for  MODFLOW-2005, generated by Flopy.
         2         0 
         2         0 # stress period 1
         3        21        38      -1810.1204
         1        19        43       -6857.143
