# Name file for MODPATH, generated by Flopy version 3.3.4.
MPBAS  86 BASE_mp.mpbas
DIS  11 BASE.dis
HEAD  88 BASE.hds
BUDGET  89 BASE.cbc
