# Name file for MODPATH, generated by Flopy version 3.3.4.
MPBAS  86 town_truth_mp.mpbas
DIS  11 town_truth.dis
HEAD  88 town_truth.hds
BUDGET  89 town_truth.cbc
